/*--------------------------------*- C++ -*----------------------------------*\
| =========                 |                                                 |
| \\      /  F ield         | OpenFOAM: The Open Source CFD Toolbox           |
|  \\    /   O peration     | Version:  plus                                  |
|   \\  /    A nd           | Web:      www.OpenFOAM.com                      |
|    \\/     M anipulation  |                                                 |
\*---------------------------------------------------------------------------*/
FoamFile
{
    version     2.0;
    format      ascii;
    class       dictionary;
    object      blockMeshDict;
}

// * * * * * * * * * * * * * * * * * * * * * * * * * * * * * * * * * * * * * //

scale   0.0016;

vertices
(
    (-10 -8.0 -37.5)
    ( 20 -8.0 -37.5)
    ( 20  8.0 -37.5)
    (-10  8.0 -37.5)
    (-10 -8.0  37.5)
    ( 20 -8.0  37.5)
    ( 20  8.0  37.5)
    (-10  8.0  37.5)
);

blocks
(
    hex (0 1 2 3 4 5 6 7) (70 35 1) simpleGrading (1 1 1)
);

edges
(
);

boundary
(
    topAndBottom
    {
        type patch;
        faces
        (
            (3 7 6 2)
            (1 5 4 0)
        );
    }

    inlet
    {
        type patch;
        faces
        (
            (0 4 7 3)
        );
    }

    outlet
    {
        type patch;
        faces
        (
            (2 6 5 1)
        );
    }


    front
    {
        type empty;
        faces
        (
            (4 5 6 7)
        );
    }
    back
    {
        type empty;
        faces
        (
            (0 3 2 1)
        );
    }
    /*frontAndBack
    {
        type empty;
        faces
        (
            (3 7 6 2)
            (1 5 4 0)
        );
    }*/
);


// ************************************************************************* //
